<?xml version="1.0" encoding="UTF-8"?>

<!-- generated on 2026-07-24T18:33:43.945048+01:00 by Eclipse SUMO netconvert 1.27.1
<netconvertConfiguration xmlns:xsi="http://www.w3.org/2001/XMLSchema-instance" xsi:noNamespaceSchemaLocation="http://sumo.dlr.de/xsd/netconvertConfiguration.xsd">

    <input>
        <osm-files value="C:\Users\tomisu\triworld-gate4\artifacts\sitecheck01-sources\banovce_accident_site.osm"/>
    </input>

    <output>
        <output-file value="C:\Users\tomisu\triworld-gate4\artifacts\sitecheck01-sources\banovce_accident_site.net.xml"/>
    </output>

    <projection>
        <proj.utm value="true"/>
    </projection>

    <processing>
        <roundabouts.guess value="true"/>
    </processing>

    <tls_building>
        <tls.discard-simple value="true"/>
    </tls_building>

    <ramp_guessing>
        <ramps.guess value="true"/>
    </ramp_guessing>

    <junctions>
        <junctions.join value="true"/>
    </junctions>

</netconvertConfiguration>
-->

<net version="1.20" junctionCornerDetail="5" limitTurnSpeed="5.50" xmlns:xsi="http://www.w3.org/2001/XMLSchema-instance" xsi:noNamespaceSchemaLocation="http://sumo.dlr.de/xsd/net_file.xsd">

    <location netOffset="-297413.22,-5397841.50" convBoundary="0.00,0.00,1994.67,2150.35" origBoundary="18.246087,48.700733,18.272604,48.720651" projParameter="+proj=utm +zone=34 +ellps=WGS84 +datum=WGS84 +units=m +no_defs"/>

    <type id="highway.footway" priority="1" numLanes="1" speed="2.78" allow="pedestrian" oneway="1" width="2.00"/>
    <type id="highway.path" priority="1" numLanes="1" speed="5.56" allow="pedestrian bicycle" oneway="0" width="2.00"/>
    <type id="highway.primary" priority="12" numLanes="2" speed="27.78" disallow="tram rail_urban rail rail_electric rail_fast ship container cable_car subway aircraft wheelchair scooter drone" oneway="0"/>
    <type id="highway.residential" priority="3" numLanes="1" speed="13.89" disallow="tram rail_urban rail rail_electric rail_fast ship container cable_car subway aircraft wheelchair scooter drone" oneway="0"/>
    <type id="highway.secondary" priority="11" numLanes="1" speed="27.78" disallow="tram rail_urban rail rail_electric rail_fast ship container cable_car subway aircraft wheelchair scooter drone" oneway="0"/>
    <type id="highway.service" priority="1" numLanes="1" speed="5.56" allow="pedestrian delivery bicycle" oneway="0"/>
    <type id="highway.tertiary" priority="10" numLanes="1" speed="22.22" disallow="tram rail_urban rail rail_electric rail_fast ship container cable_car subway aircraft wheelchair scooter drone" oneway="0"/>
    <type id="highway.track" priority="1" numLanes="1" speed="5.56" allow="pedestrian motorcycle moped bicycle" oneway="0"/>
    <type id="railway.rail" priority="20" numLanes="1" speed="44.44" allow="rail" oneway="1"/>

    <edge id=":11226722941_0" function="internal">
        <lane id=":11226722941_0_0" index="0" allow="pedestrian delivery bicycle" speed="5.56" length="5.00" shape="909.60,1355.33 905.43,1352.55"/>
    </edge>
    <edge id=":11226722941_1" function="internal">
        <lane id=":11226722941_1_0" index="0" allow="pedestrian delivery bicycle" speed="3.65" length="1.44" shape="909.60,1355.33 909.04,1354.00"/>
    </edge>
    <edge id=":11226722941_4" function="internal">
        <lane id=":11226722941_4_0" index="0" allow="pedestrian delivery bicycle" speed="3.65" length="3.23" shape="909.04,1354.00 909.15,1353.11 909.93,1352.67 911.37,1352.67"/>
    </edge>
    <edge id=":11226722941_2" function="internal">
        <lane id=":11226722941_2_0" index="0" allow="pedestrian delivery bicycle" speed="5.56" length="5.01" shape="907.21,1349.89 911.37,1352.67"/>
    </edge>
    <edge id=":11226722941_3" function="internal">
        <lane id=":11226722941_3_0" index="0" allow="pedestrian delivery bicycle" speed="3.65" length="1.44" shape="907.21,1349.89 907.76,1351.22"/>
    </edge>
    <edge id=":11226722941_5" function="internal">
        <lane id=":11226722941_5_0" index="0" allow="pedestrian delivery bicycle" speed="3.65" length="3.23" shape="907.76,1351.22 907.65,1352.11 906.88,1352.55 905.43,1352.55"/>
    </edge>
    <edge id=":11226722946_0" function="internal">
        <lane id=":11226722946_0_0" index="0" disallow="tram rail_urban rail rail_electric rail_fast ship container cable_car subway aircraft wheelchair scooter drone" speed="22.22" length="5.16" shape="898.78,1362.75 894.45,1359.93"/>
    </edge>
    <edge id=":11226722946_1" function="internal">
        <lane id=":11226722946_1_0" index="0" disallow="tram rail_urban rail rail_electric rail_fast ship container cable_car subway aircraft wheelchair scooter drone" speed="22.22" length="5.28" shape="896.14,1357.22 900.57,1360.10"/>
    </edge>
    <edge id=":11226724247_0" function="internal">
        <lane id=":11226724247_0_0" index="0" allow="pedestrian delivery bicycle" speed="3.65" length="4.67" shape="1164.37,1514.32 1165.66,1513.68 1166.55,1513.74 1167.04,1514.48 1167.13,1515.92"/>
    </edge>
    <edge id=":11226724251_0" function="internal">
        <lane id=":11226724251_0_0" index="0" allow="pedestrian delivery bicycle" speed="5.56" length="5.93" shape="1140.12,1554.63 1139.02,1556.00 1138.24,1556.92 1137.38,1557.77 1136.06,1558.93"/>
    </edge>
    <edge id=":11226724251_1" function="internal">
        <lane id=":11226724251_1_0" index="0" allow="pedestrian delivery bicycle" speed="3.65" length="1.44" shape="1140.12,1554.63 1138.75,1555.06"/>
    </edge>
    <edge id=":11226724251_4" function="internal">
        <lane id=":11226724251_4_0" index="0" allow="pedestrian delivery bicycle" speed="3.65" length="3.23" shape="1138.75,1555.06 1137.87,1554.88 1137.50,1554.06 1137.63,1552.63"/>
    </edge>
    <edge id=":11226724251_2" function="internal">
        <lane id=":11226724251_2_0" index="0" allow="pedestrian delivery bicycle" speed="5.56" length="5.33" shape="1133.98,1556.49 1135.17,1555.45 1135.94,1554.69 1136.64,1553.86 1137.63,1552.63"/>
    </edge>
    <edge id=":11226724251_3" function="internal">
        <lane id=":11226724251_3_0" index="0" allow="pedestrian delivery bicycle" speed="3.65" length="1.44" shape="1133.98,1556.49 1135.41,1556.32"/>
    </edge>
    <edge id=":11226724251_5" function="internal">
        <lane id=":11226724251_5_0" index="0" allow="pedestrian delivery bicycle" speed="3.65" length="3.23" shape="1135.41,1556.32 1136.24,1556.67 1136.45,1557.54 1136.06,1558.93"/>
    </edge>
    <edge id=":11226724262_0" function="internal">
        <lane id=":11226724262_0_0" index="0" allow="pedestrian delivery bicycle" speed="5.56" length="7.06" shape="1029.59,1442.09 1025.06,1447.51"/>
    </edge>
    <edge id=":11226724262_1" function="internal">
        <lane id=":11226724262_1_0" index="0" allow="pedestrian delivery bicycle" speed="3.65" length="1.44" shape="1029.59,1442.09 1028.21,1442.50"/>
    </edge>
    <edge id=":11226724262_4" function="internal">
        <lane id=":11226724262_4_0" index="0" allow="pedestrian delivery bicycle" speed="3.65" length="3.23" shape="1028.21,1442.50 1027.34,1442.29 1026.98,1441.47 1027.13,1440.04"/>
    </edge>
    <edge id=":11226724262_2" function="internal">
        <lane id=":11226724262_2_0" index="0" allow="pedestrian delivery bicycle" speed="5.56" length="7.07" shape="1022.61,1445.46 1027.13,1440.04"/>
    </edge>
    <edge id=":11226724262_3" function="internal">
        <lane id=":11226724262_3_0" index="0" allow="pedestrian delivery bicycle" speed="3.65" length="1.44" shape="1022.61,1445.46 1023.99,1445.05"/>
    </edge>
    <edge id=":11226724262_5" function="internal">
        <lane id=":11226724262_5_0" index="0" allow="pedestrian delivery bicycle" speed="3.65" length="3.23" shape="1023.99,1445.05 1024.86,1445.26 1025.22,1446.08 1025.06,1447.51"/>
    </edge>
    <edge id=":11226724265_0" function="internal">
        <lane id=":11226724265_0_0" index="0" allow="pedestrian delivery bicycle" speed="5.56" length="5.17" shape="1005.73,1423.78 1002.56,1427.88"/>
    </edge>
    <edge id=":11226724265_1" function="internal">
        <lane id=":11226724265_1_0" index="0" allow="pedestrian delivery bicycle" speed="3.65" length="1.44" shape="1005.73,1423.78 1004.36,1424.24"/>
    </edge>
    <edge id=":11226724265_4" function="internal">
        <lane id=":11226724265_4_0" index="0" allow="pedestrian delivery bicycle" speed="3.65" length="3.23" shape="1004.36,1424.24 1003.48,1424.07 1003.09,1423.27 1003.19,1421.83"/>
    </edge>
    <edge id=":11226724265_2" function="internal">
        <lane id=":11226724265_2_0" index="0" allow="pedestrian delivery bicycle" speed="5.56" length="5.17" shape="1000.03,1425.92 1003.19,1421.83"/>
    </edge>
    <edge id=":11226724265_3" function="internal">
        <lane id=":11226724265_3_0" index="0" allow="pedestrian delivery bicycle" speed="3.65" length="1.44" shape="1000.03,1425.92 1001.40,1425.46"/>
    </edge>
    <edge id=":11226724265_5" function="internal">
        <lane id=":11226724265_5_0" index="0" allow="pedestrian delivery bicycle" speed="3.65" length="3.23" shape="1001.40,1425.46 1002.28,1425.63 1002.66,1426.44 1002.56,1427.88"/>
    </edge>
    <edge id=":11226724276_0" function="internal">
        <lane id=":11226724276_0_0" index="0" allow="pedestrian delivery bicycle" speed="3.65" length="4.67" shape="1047.56,1415.58 1048.95,1415.18 1049.82,1415.38 1050.17,1416.20 1050.02,1417.64"/>
    </edge>
    <edge id=":11226724277_0" function="internal">
        <lane id=":11226724277_0_0" index="0" disallow="tram rail_urban rail rail_electric rail_fast ship container cable_car subway aircraft wheelchair scooter drone" speed="22.22" length="9.12" shape="1022.45,1454.94 1015.70,1448.81"/>
    </edge>
    <edge id=":11226724277_1" function="internal">
        <lane id=":11226724277_1_0" index="0" allow="pedestrian delivery bicycle" speed="7.00" length="2.99" shape="1022.45,1454.94 1020.82,1452.83 1020.73,1452.51"/>
    </edge>
    <edge id=":11226724277_7" function="internal">
        <lane id=":11226724277_7_0" index="0" allow="pedestrian delivery bicycle" speed="7.00" length="7.03" shape="1020.73,1452.51 1020.23,1450.64 1020.67,1448.37 1022.15,1446.01"/>
    </edge>
    <edge id=":11226724277_2" function="internal">
        <lane id=":11226724277_2_0" index="0" allow="pedestrian delivery bicycle" speed="5.22" length="5.14" shape="1024.60,1448.06 1023.83,1449.29 1023.58,1450.46 1023.86,1451.57 1024.67,1452.64"/>
    </edge>
    <edge id=":11226724277_3" function="internal">
        <lane id=":11226724277_3_0" index="0" allow="pedestrian delivery bicycle" speed="6.85" length="10.23" shape="1024.60,1448.06 1022.52,1449.94 1020.34,1450.69 1018.07,1450.32 1015.70,1448.81"/>
    </edge>
    <edge id=":11226724277_4" function="internal">
        <lane id=":11226724277_4_0" index="0" allow="pedestrian delivery bicycle" speed="3.65" length="4.67" shape="1024.60,1448.06 1023.22,1448.47 1022.35,1448.27 1021.99,1447.45 1022.15,1446.01"/>
    </edge>
    <edge id=":11226724277_5" function="internal">
        <lane id=":11226724277_5_0" index="0" allow="pedestrian delivery bicycle" speed="5.03" length="5.02" shape="1017.78,1446.38 1018.94,1447.12 1020.06,1447.30 1021.12,1446.93 1022.15,1446.01"/>
    </edge>
    <edge id=":11226724277_6" function="internal">
        <lane id=":11226724277_6_0" index="0" disallow="tram rail_urban rail rail_electric rail_fast ship container cable_car subway aircraft wheelchair scooter drone" speed="22.22" length="9.31" shape="1017.78,1446.38 1024.67,1452.64"/>
    </edge>
    <edge id=":11226724287_0" function="internal">
        <lane id=":11226724287_0_0" index="0" allow="pedestrian delivery bicycle" speed="3.65" length="4.67" shape="973.84,1391.33 975.22,1390.89 976.09,1391.08 976.47,1391.90 976.34,1393.33"/>
    </edge>
    <edge id=":11472773696_0" function="internal">
        <lane id=":11472773696_0_0" index="0" allow="pedestrian delivery bicycle" speed="5.14" length="5.12" shape="640.39,1478.43 639.04,1478.35 637.96,1478.75 637.16,1479.62 636.64,1480.96"/>
    </edge>
    <edge id=":11472773696_1" function="internal">
        <lane id=":11472773696_1_0" index="0" allow="pedestrian delivery bicycle" speed="5.56" length="9.40" shape="640.39,1478.43 631.18,1476.51"/>
    </edge>
    <edge id=":11472773696_2" function="internal">
        <lane id=":11472773696_2_0" index="0" allow="pedestrian delivery bicycle" speed="3.65" length="4.67" shape="640.39,1478.43 639.38,1477.40 639.15,1476.53 639.70,1475.83 641.04,1475.29"/>
    </edge>
    <edge id=":11472773696_3" function="internal">
        <lane id=":11472773696_3_0" index="0" allow="pedestrian delivery bicycle" speed="5.56" length="9.40" shape="631.84,1473.38 641.04,1475.29"/>
    </edge>
    <edge id=":11472773696_4" function="internal">
        <lane id=":11472773696_4_0" index="0" allow="pedestrian delivery bicycle" speed="5.56" length="10.31" shape="631.84,1473.38 634.50,1474.34 636.20,1475.93 636.91,1478.14 636.64,1480.96"/>
    </edge>
    <edge id=":11472773696_5" function="internal">
        <lane id=":11472773696_5_0" index="0" allow="pedestrian delivery bicycle" speed="3.65" length="4.67" shape="631.84,1473.38 632.85,1474.40 633.08,1475.27 632.52,1475.97 631.18,1476.51"/>
    </edge>
    <edge id=":11472773696_6" function="internal">
        <lane id=":11472773696_6_0" index="0" allow="pedestrian delivery bicycle" speed="5.01" length="5.04" shape="633.53,1480.21 633.66,1478.83 633.31,1477.76 632.49,1476.98 631.18,1476.51"/>
    </edge>
    <edge id=":11472773696_7" function="internal">
        <lane id=":11472773696_7_0" index="0" allow="pedestrian delivery bicycle" speed="5.56" length="10.17" shape="633.53,1480.21 634.56,1477.59 636.15,1475.90 638.31,1475.13 641.04,1475.29"/>
    </edge>
    <edge id=":11472773696_8" function="internal">
        <lane id=":11472773696_8_0" index="0" allow="pedestrian delivery bicycle" speed="3.65" length="4.67" shape="633.53,1480.21 634.59,1479.23 635.46,1479.03 636.15,1479.61 636.64,1480.96"/>
    </edge>
    <edge id=":11472773698_0" function="internal">
        <lane id=":11472773698_0_0" index="0" allow="pedestrian bicycle" speed="5.56" length="9.69" width="2.00" shape="603.14,1546.09 600.37,1545.34 598.53,1544.65 596.70,1543.88 594.00,1542.90"/>
    </edge>
    <edge id=":11472773698_1" function="internal">
        <lane id=":11472773698_1_0" index="0" allow="pedestrian delivery bicycle" speed="5.56" length="9.99" shape="603.14,1546.09 600.60,1545.10 598.95,1543.54 598.20,1541.40 598.34,1538.68"/>
    </edge>
    <edge id=":11472773698_2" function="internal">
        <lane id=":11472773698_2_0" index="0" allow="pedestrian delivery bicycle" speed="3.65" length="4.67" shape="603.14,1546.09 602.15,1545.04 601.94,1544.17 602.51,1543.48 603.86,1542.97"/>
    </edge>
    <edge id=":11472773698_3" function="internal">
        <lane id=":11472773698_3_0" index="0" allow="pedestrian delivery bicycle" speed="5.08" length="4.96" shape="601.48,1539.29 601.41,1540.64 601.79,1541.71 602.60,1542.48 603.86,1542.97"/>
    </edge>
    <edge id=":11472773698_4" function="internal">
        <lane id=":11472773698_4_0" index="0" allow="pedestrian bicycle" speed="5.56" length="9.74" width="2.00" shape="601.48,1539.29 600.60,1541.65 599.05,1543.04 596.85,1543.45 594.00,1542.90"/>
    </edge>
    <edge id=":11472773698_5" function="internal">
        <lane id=":11472773698_5_0" index="0" allow="pedestrian delivery bicycle" speed="3.65" length="4.67" shape="601.48,1539.29 600.47,1540.32 599.61,1540.56 598.90,1540.01 598.34,1538.68"/>
    </edge>
    <edge id=":11472773698_6" function="internal">
        <lane id=":11472773698_6_0" index="0" allow="pedestrian bicycle" speed="4.75" length="5.16" width="2.00" shape="594.62,1541.00 596.00,1541.23 597.09,1540.92 597.87,1540.07 598.34,1538.68"/>
    </edge>
    <edge id=":11472773698_7" function="internal">
        <lane id=":11472773698_7_0" index="0" allow="pedestrian bicycle" speed="5.56" length="9.47" width="2.00" shape="594.62,1541.00 597.31,1541.77 599.20,1542.13 601.11,1542.42 603.86,1542.97"/>
    </edge>
    <edge id=":11472773698_8" function="internal">
        <lane id=":11472773698_8_0" index="0" allow="pedestrian bicycle" speed="2.89" length="2.92" width="2.00" shape="594.62,1541.00 595.18,1541.71 595.26,1542.26 594.87,1542.66 594.00,1542.90"/>
    </edge>
    <edge id=":11919900078_0" function="internal">
        <lane id=":11919900078_0_0" index="0" allow="pedestrian delivery bicycle" speed="6.61" length="6.50" shape="635.16,1150.11 634.12,1150.83 633.38,1152.02 632.92,1153.67 632.76,1155.79"/>
    </edge>
    <edge id=":11919900078_1" function="internal">
        <lane id=":11919900078_1_0" index="0" disallow="tram rail_urban rail rail_electric rail_fast ship container cable_car subway aircraft wheelchair scooter drone" speed="13.89" length="9.56" shape="635.16,1150.11 632.53,1151.17 630.70,1151.82 628.83,1152.36 626.09,1153.12"/>
    </edge>
    <edge id=":11919900078_2" function="internal">
        <lane id=":11919900078_2_0" index="0" disallow="tram rail_urban rail rail_electric rail_fast ship container cable_car subway aircraft wheelchair scooter drone" speed="13.89" length="9.19" shape="625.22,1150.05 627.85,1149.31 629.64,1148.79 631.41,1148.17 633.93,1147.15"/>
    </edge>
    <edge id=":11919900078_3" function="internal">
        <lane id=":11919900078_3_0" index="0" allow="pedestrian delivery bicycle" speed="6.69" length="3.61" shape="625.22,1150.05 628.54,1149.60 628.79,1149.69"/>
    </edge>
    <edge id=":11919900078_7" function="internal">
        <lane id=":11919900078_7_0" index="0" allow="pedestrian delivery bicycle" speed="6.69" length="8.08" shape="628.79,1149.69 630.90,1150.41 632.31,1152.47 632.76,1155.79"/>
    </edge>
    <edge id=":11919900078_4" function="internal">
        <lane id=":11919900078_4_0" index="0" allow="pedestrian delivery bicycle" speed="4.80" length="5.38" shape="629.56,1155.77 629.35,1154.24 628.71,1153.29 627.62,1152.92 626.09,1153.12"/>
    </edge>
    <edge id=":11919900078_5" function="internal">
        <lane id=":11919900078_5_0" index="0" allow="pedestrian delivery bicycle" speed="8.15" length="10.25" shape="629.56,1155.77 629.85,1152.67 630.68,1150.20 632.04,1148.37 633.93,1147.15"/>
    </edge>
    <edge id=":11919900078_6" function="internal">
        <lane id=":11919900078_6_0" index="0" allow="pedestrian delivery bicycle" speed="3.65" length="4.67" shape="629.56,1155.77 630.37,1154.57 631.17,1154.18 631.97,1154.58 632.76,1155.79"/>
    </edge>
    <edge id=":12106433153_0" function="internal">
        <lane id=":12106433153_0_0" index="0" disallow="tram rail_urban rail rail_electric rail_fast ship container cable_car subway aircraft wheelchair scooter drone" speed="13.89" length="0.10" shape="737.33,1134.57 737.33,1134.57"/>
    </edge>
    <edge id=":12106433153_1" function="internal">
        <lane id=":12106433153_1_0" index="0" disallow="tram rail_urban rail rail_electric rail_fast ship container cable_car subway aircraft wheelchair scooter drone" speed="13.89" length="0.10" shape="734.21,1133.87 734.21,1133.87"/>
    </edge>
    <edge id=":12895658307_0" function="internal">
        <lane id=":12895658307_0_0" index="0" allow="pedestrian delivery bicycle" speed="3.65" length="4.67" shape="1198.60,1664.28 1198.48,1665.72 1197.97,1666.45 1197.08,1666.49 1195.80,1665.82"/>
    </edge>
    <edge id=":12895658309_0" function="internal">
        <lane id=":12895658309_0_0" index="0" allow="pedestrian delivery bicycle" speed="5.56" length="0.10" shape="1162.13,1577.38 1162.05,1577.33"/>
    </edge>
    <edge id=":12895658309_1" function="internal">
        <lane id=":12895658309_1_0" index="0" allow="pedestrian delivery bicycle" speed="5.56" length="0.10" shape="1163.87,1574.69 1163.79,1574.64"/>
    </edge>
    <edge id=":12895658312_0" function="internal">
        <lane id=":12895658312_0_0" index="0" allow="pedestrian delivery bicycle" speed="5.56" length="0.30" shape="1187.22,1542.51 1186.97,1542.36"/>
    </edge>
    <edge id=":12895658312_1" function="internal">
        <lane id=":12895658312_1_0" index="0" allow="pedestrian delivery bicycle" speed="5.56" length="0.30" shape="1188.64,1539.63 1188.89,1539.78"/>
    </edge>
    <edge id=":12895658313_0" function="internal">
        <lane id=":12895658313_0_0" index="0" allow="pedestrian delivery bicycle" speed="5.33" length="5.36" shape="1183.25,1540.09 1181.83,1539.44 1180.56,1539.32 1179.45,1539.72 1178.50,1540.66"/>
    </edge>
    <edge id=":12895658313_1" function="internal">
        <lane id=":12895658313_1_0" index="0" allow="pedestrian delivery bicycle" speed="5.56" length="10.59" shape="1183.25,1540.09 1180.99,1538.22 1179.94,1536.11 1180.11,1533.76 1181.49,1531.16"/>
    </edge>
    <edge id=":12895658313_2" function="internal">
        <lane id=":12895658313_2_0" index="0" allow="pedestrian delivery bicycle" speed="3.65" length="4.67" shape="1183.25,1540.09 1182.64,1538.78 1182.72,1537.89 1183.48,1537.42 1184.92,1537.36"/>
    </edge>
    <edge id=":12895658313_3" function="internal">
        <lane id=":12895658313_3_0" index="0" allow="pedestrian delivery bicycle" speed="4.95" length="5.10" shape="1184.07,1533.06 1183.40,1534.31 1183.32,1535.44 1183.83,1536.46 1184.92,1537.36"/>
    </edge>
    <edge id=":12895658313_4" function="internal">
        <lane id=":12895658313_4_0" index="0" allow="pedestrian delivery bicycle" speed="5.56" length="9.42" shape="1184.07,1533.06 1178.50,1540.66"/>
    </edge>
    <edge id=":12895658313_5" function="internal">
        <lane id=":12895658313_5_0" index="0" allow="pedestrian delivery bicycle" speed="3.65" length="4.67" shape="1184.07,1533.06 1182.71,1533.55 1181.83,1533.40 1181.42,1532.61 1181.49,1531.16"/>
    </edge>
    <edge id=":12895658313_6" function="internal">
        <lane id=":12895658313_6_0" index="0" allow="pedestrian delivery bicycle" speed="5.56" length="9.43" shape="1175.92,1538.77 1181.49,1531.16"/>
    </edge>
    <edge id=":12895658313_7" function="internal">
        <lane id=":12895658313_7_0" index="0" allow="pedestrian delivery bicycle" speed="5.56" length="10.20" shape="1175.92,1538.77 1177.79,1536.89 1179.91,1536.03 1182.29,1536.19 1184.92,1537.36"/>
    </edge>
    <edge id=":12895658313_8" function="internal">
        <lane id=":12895658313_8_0" index="0" allow="pedestrian delivery bicycle" speed="3.65" length="4.67" shape="1175.92,1538.77 1177.27,1538.27 1178.15,1538.42 1178.56,1539.22 1178.50,1540.66"/>
    </edge>
    <edge id=":12895658327_0" function="internal">
        <lane id=":12895658327_0_0" index="0" allow="pedestrian delivery bicycle" speed="3.65" length="4.67" shape="1278.19,1491.26 1279.08,1492.39 1279.21,1493.28 1278.58,1493.91 1277.19,1494.30"/>
    </edge>
    <edge id=":12895658339_0" function="internal">
        <lane id=":12895658339_0_0" index="0" allow="pedestrian delivery bicycle" speed="5.56" length="0.52" shape="1191.93,1522.48 1191.80,1522.56 1191.72,1522.63 1191.66,1522.71 1191.56,1522.83"/>
    </edge>
    <edge id=":12895658339_1" function="internal">
        <lane id=":12895658339_1_0" index="0" allow="pedestrian delivery bicycle" speed="5.56" length="1.55" shape="1188.98,1520.94 1189.26,1520.57 1189.47,1520.34 1189.71,1520.13 1190.08,1519.86"/>
    </edge>
    <edge id=":12895658342_0" function="internal">
        <lane id=":12895658342_0_0" index="0" disallow="tram rail_urban rail rail_electric rail_fast ship container cable_car subway aircraft wheelchair scooter drone" speed="22.22" length="9.47" shape="1136.71,1584.49 1131.74,1576.44"/>
    </edge>
    <edge id=":12895658342_1" function="internal">
        <lane id=":12895658342_1_0" index="0" allow="pedestrian delivery bicycle" speed="6.87" length="3.06" shape="1136.71,1584.49 1135.70,1581.60"/>
    </edge>
    <edge id=":12895658342_7" function="internal">
        <lane id=":12895658342_7_0" index="0" allow="pedestrian delivery bicycle" speed="6.87" length="7.62" shape="1135.70,1581.60 1135.82,1579.17 1137.09,1577.20 1139.49,1575.68"/>
    </edge>
    <edge id=":12895658342_2" function="internal">
        <lane id=":12895658342_2_0" index="0" allow="pedestrian delivery bicycle" speed="4.97" length="5.07" shape="1140.76,1578.62 1139.62,1579.34 1139.02,1580.28 1138.96,1581.43 1139.45,1582.80"/>
    </edge>
    <edge id=":12895658342_3" function="internal">
        <lane id=":12895658342_3_0" index="0" allow="pedestrian delivery bicycle" speed="7.27" length="10.26" shape="1140.76,1578.62 1137.93,1579.47 1135.48,1579.38 1133.42,1578.37 1131.74,1576.44"/>
    </edge>
    <edge id=":12895658342_4" function="internal">
        <lane id=":12895658342_4_0" index="0" allow="pedestrian delivery bicycle" speed="3.65" length="4.67" shape="1140.76,1578.62 1139.34,1578.36 1138.65,1577.79 1138.70,1576.90 1139.49,1575.68"/>
    </edge>
    <edge id=":12895658342_5" function="internal">
        <lane id=":12895658342_5_0" index="0" allow="pedestrian delivery bicycle" speed="5.57" length="5.63" shape="1134.47,1574.75 1135.35,1575.73 1136.48,1576.21 1137.86,1576.20 1139.49,1575.68"/>
    </edge>
    <edge id=":12895658342_6" function="internal">
        <lane id=":12895658342_6_0" index="0" disallow="tram rail_urban rail rail_electric rail_fast ship container cable_car subway aircraft wheelchair scooter drone" speed="22.22" length="9.47" shape="1134.47,1574.75 1139.45,1582.80"/>
    </edge>
    <edge id=":12895658344_0" function="internal">
        <lane id=":12895658344_0_0" index="0" disallow="tram rail_urban rail rail_electric rail_fast ship container cable_car subway aircraft wheelchair scooter drone" speed="19.44" length="0.10" shape="679.76,1018.54 679.76,1018.54"/>
    </edge>
    <edge id=":12895658344_1" function="internal">
        <lane id=":12895658344_1_0" index="0" disallow="tram rail_urban rail rail_electric rail_fast ship container cable_car subway aircraft wheelchair scooter drone" speed="19.44" length="0.10" shape="682.80,1017.52 682.80,1017.52"/>
    </edge>
    <edge id=":12895658345_0" function="internal">
        <lane id=":12895658345_0_0" index="0" disallow="tram rail_urban rail rail_electric rail_fast ship container cable_car subway aircraft wheelchair scooter drone" speed="13.89" length="0.10" shape="694.99,1067.34 694.99,1067.34"/>
    </edge>
    <edge id=":12895658345_1" function="internal">
        <lane id=":12895658345_1_0" index="0" disallow="tram rail_urban rail rail_electric rail_fast ship container cable_car subway aircraft wheelchair scooter drone" speed="13.89" length="0.10" shape="698.05,1066.40 698.05,1066.40"/>
    </edge>
    <edge id=":13055791871_0" function="internal">
        <lane id=":13055791871_0_0" index="0" allow="bicycle" speed="5.56" length="6.12" width="2.00" shape="578.68,1537.93 572.86,1536.03"/>
    </edge>
    <edge id=":13055791871_1" function="internal" bidi=":13055791871_3">
        <lane id=":13055791871_1_0" index="0" allow="rail" speed="22.22" length="7.22" shape="576.77,1532.46 575.05,1539.47"/>
    </edge>
    <edge id=":13055791871_2" function="internal">
        <lane id=":13055791871_2_0" index="0" allow="bicycle" speed="5.56" length="6.11" width="2.00" shape="573.48,1534.13 579.30,1536.02"/>
    </edge>
    <edge id=":13055791871_3" function="internal" bidi=":13055791871_1">
        <lane id=":13055791871_3_0" index="0" allow="rail" speed="22.22" length="7.22" shape="575.05,1539.47 576.77,1532.46"/>
    </edge>
    <edge id=":13055791872_0" function="internal">
        <lane id=":13055791872_0_0" index="0" allow="bicycle" speed="5.56" length="0.50" width="2.00" shape="590.00,1541.60 590.48,1541.75"/>
    </edge>
    <edge id=":13055791872_1" function="internal">
        <lane id=":13055791872_1_0" index="0" allow="pedestrian bicycle" speed="2.89" length="0.45" width="2.00" shape="590.00,1541.60 589.72,1541.24"/>
    </edge>
    <edge id=":13055791872_3" function="internal">
        <lane id=":13055791872_3_0" index="0" allow="pedestrian bicycle" speed="2.89" length="2.47" width="2.00" shape="589.72,1541.24 589.44,1540.89 589.36,1540.34 589.75,1539.94 590.62,1539.70"/>
    </edge>
    <edge id=":13055791872_2" function="internal">
        <lane id=":13055791872_2_0" index="0" allow="bicycle" speed="5.56" length="0.49" width="2.00" shape="591.09,1539.85 590.62,1539.70"/>
    </edge>
    <edge id=":13055791873_0" function="internal">
        <lane id=":13055791873_0_0" index="0" allow="bicycle" speed="5.56" length="0.10" width="2.00" shape="572.67,1535.97 572.76,1535.99"/>
    </edge>
    <edge id=":13055791873_1" function="internal">
        <lane id=":13055791873_1_0" index="0" allow="bicycle" speed="5.56" length="0.10" width="2.00" shape="573.38,1534.09 573.29,1534.07"/>
    </edge>
    <edge id=":13055791873_2" function="internal">
        <lane id=":13055791873_2_0" index="0" allow="pedestrian bicycle" speed="2.89" length="1.46" width="2.00" shape="573.38,1534.09 573.94,1534.80 574.02,1535.35"/>
    </edge>
    <edge id=":13055791873_3" function="internal">
        <lane id=":13055791873_3_0" index="0" allow="pedestrian bicycle" speed="2.89" length="1.46" width="2.00" shape="574.02,1535.35 573.63,1535.75 572.76,1535.99"/>
    </edge>
    <edge id=":13055791883_0" function="internal">
        <lane id=":13055791883_0_0" index="0" allow="pedestrian motorcycle moped bicycle" speed="3.65" length="4.67" shape="518.34,1726.71 517.74,1728.02 517.01,1728.54 516.16,1728.27 515.18,1727.21"/>
    </edge>
    <edge id=":13055791884_0" function="internal">
        <lane id=":13055791884_0_0" index="0" allow="pedestrian delivery bicycle" speed="5.56" length="0.30" shape="609.89,1172.49 609.60,1172.41"/>
    </edge>
    <edge id=":13055791884_1" function="internal">
        <lane id=":13055791884_1_0" index="0" allow="pedestrian delivery bicycle" speed="5.56" length="0.30" shape="610.39,1169.31 610.68,1169.39"/>
    </edge>
    <edge id=":13055791885_0" function="internal">