<?xml version="1.0" encoding="UTF-8"?>

<!-- generated on 2026-07-24T02:10:27.592544+01:00 by Eclipse SUMO netconvert 1.27.1
<netconvertConfiguration xmlns:xsi="http://www.w3.org/2001/XMLSchema-instance" xsi:noNamespaceSchemaLocation="http://sumo.dlr.de/xsd/netconvertConfiguration.xsd">

    <input>
        <osm-files value="artifacts/gate3-osm/banovce_authoritative.osm"/>
    </input>

    <output>
        <output-file value="artifacts/gate3-osm/banovce_authoritative.net.xml"/>
        <output.street-names value="true"/>
    </output>

    <projection>
        <proj.utm value="true"/>
    </projection>

    <junctions>
        <no-turnarounds value="true"/>
    </junctions>

</netconvertConfiguration>
-->

<net version="1.20" junctionCornerDetail="5" limitTurnSpeed="5.50" xmlns:xsi="http://www.w3.org/2001/XMLSchema-instance" xsi:noNamespaceSchemaLocation="http://sumo.dlr.de/xsd/net_file.xsd">

    <location netOffset="-304540.54,-5399298.81" convBoundary="0.00,0.00,1602.59,2259.49" origBoundary="18.341846,48.716470,18.363374,48.736404" projParameter="+proj=utm +zone=34 +ellps=WGS84 +datum=WGS84 +units=m +no_defs"/>

    <type id="highway.path" priority="1" numLanes="1" speed="5.56" allow="pedestrian bicycle" oneway="0" width="2.00"/>
    <type id="highway.tertiary" priority="10" numLanes="1" speed="22.22" disallow="tram rail_urban rail rail_electric rail_fast ship container cable_car subway aircraft wheelchair scooter drone" oneway="0"/>
    <type id="highway.track" priority="1" numLanes="1" speed="5.56" allow="pedestrian motorcycle moped bicycle" oneway="0"/>

    <edge id=":13713789752_0" function="internal">
        <lane id=":13713789752_0_0" index="0" allow="pedestrian bicycle" speed="8.23" length="7.17" width="2.00" shape="1164.13,1533.49 1163.53,1532.77 1162.29,1531.99 1160.39,1531.16 1157.85,1530.27"/>
    </edge>
    <edge id=":13713789752_1" function="internal">
        <lane id=":13713789752_1_0" index="0" disallow="tram rail_urban rail rail_electric rail_fast ship container cable_car subway aircraft wheelchair scooter drone" speed="25.00" length="8.17" shape="1164.13,1533.49 1161.13,1525.89"/>
    </edge>
    <edge id=":13713789752_2" function="internal">
        <lane id=":13713789752_2_0" index="0" disallow="tram rail_urban rail rail_electric rail_fast ship container cable_car subway aircraft wheelchair scooter drone" speed="25.00" length="8.17" shape="1164.11,1524.71 1167.11,1532.31"/>
    </edge>
    <edge id=":13713789752_3" function="internal">
        <lane id=":13713789752_3_0" index="0" allow="pedestrian bicycle" speed="6.24" length="3.82" width="2.00" shape="1164.11,1524.71 1165.00,1528.31 1164.96,1528.42"/>
    </edge>
    <edge id=":13713789752_6" function="internal">
        <lane id=":13713789752_6_0" index="0" allow="pedestrian bicycle" speed="6.24" length="8.71" width="2.00" shape="1164.96,1528.42 1164.25,1530.43 1161.87,1531.09 1157.85,1530.27"/>
    </edge>
    <edge id=":13713789752_4" function="internal">
        <lane id=":13713789752_4_0" index="0" allow="pedestrian bicycle" speed="4.22" length="5.46" width="2.00" shape="1158.46,1528.36 1160.19,1528.71 1161.21,1528.41 1161.53,1527.47 1161.13,1525.89"/>
    </edge>
    <edge id=":13713789752_5" function="internal">
        <lane id=":13713789752_5_0" index="0" allow="pedestrian bicycle" speed="9.36" length="9.60" width="2.00" shape="1158.46,1528.36 1162.04,1529.59 1164.68,1530.65 1166.37,1531.56 1167.11,1532.31"/>
    </edge>
    <edge id=":13713789753_0" function="internal">
        <lane id=":13713789753_0_0" index="0" allow="pedestrian bicycle" speed="5.56" length="13.43" width="2.00" shape="1146.05,1526.48 1133.24,1522.46"/>
    </edge>
    <edge id=":13713789753_1" function="internal">
        <lane id=":13713789753_1_0" index="0" allow="pedestrian bicycle" speed="5.56" length="13.81" width="2.00" shape="1146.05,1526.48 1142.87,1525.01 1140.21,1523.03 1137.72,1520.73 1135.05,1518.32"/>
    </edge>
    <edge id=":13713789753_2" function="internal">
        <lane id=":13713789753_2_0" index="0" allow="pedestrian bicycle" speed="5.56" length="13.06" width="2.00" shape="1136.33,1516.78 1138.90,1519.14 1141.15,1521.31 1143.58,1523.16 1146.66,1524.58"/>
    </edge>
    <edge id=":13713789753_3" function="internal">
        <lane id=":13713789753_3_0" index="0" allow="pedestrian bicycle" speed="5.56" length="17.81" width="2.00" shape="1136.33,1516.78 1140.91,1521.12 1141.92,1523.51 1139.36,1523.96 1133.24,1522.46"/>
    </edge>
    <edge id=":13713789753_4" function="internal">
        <lane id=":13713789753_4_0" index="0" allow="pedestrian bicycle" speed="4.27" length="7.01" width="2.00" shape="1133.83,1520.55 1136.24,1521.14 1137.25,1520.97 1136.85,1520.02 1135.05,1518.32"/>
    </edge>
    <edge id=":13713789753_5" function="internal">
        <lane id=":13713789753_5_0" index="0" allow="pedestrian bicycle" speed="5.56" length="13.45" width="2.00" shape="1133.83,1520.55 1146.66,1524.58"/>
    </edge>
    <edge id=":1599618333_0" function="internal">
        <lane id=":1599618333_0_0" index="0" disallow="tram rail_urban rail rail_electric rail_fast ship container cable_car subway aircraft wheelchair scooter drone" speed="10.82" length="8.88" shape="444.37,1239.70 441.88,1239.43 440.18,1239.92 438.54,1240.96 436.25,1242.31"/>
    </edge>
    <edge id=":1599618333_1" function="internal">
        <lane id=":1599618333_1_0" index="0" allow="pedestrian bicycle" speed="15.28" length="16.06" width="2.00" shape="444.37,1239.70 440.65,1238.35 436.83,1236.54 433.00,1235.07 429.24,1234.76"/>
    </edge>
    <edge id=":1599618333_2" function="internal">
        <lane id=":1599618333_2_0" index="0" allow="pedestrian bicycle" speed="15.28" length="15.81" width="2.00" shape="429.91,1232.64 433.68,1232.79 437.53,1233.92 441.36,1235.39 445.09,1236.58"/>
    </edge>
    <edge id=":1599618333_3" function="internal">
        <lane id=":1599618333_3_0" index="0" allow="pedestrian bicycle" speed="6.09" length="15.96" width="2.00" shape="429.91,1232.64 434.39,1233.35 437.61,1236.04 438.57,1239.45 436.25,1242.31"/>
    </edge>
    <edge id=":1599618333_4" function="internal">
        <lane id=":1599618333_4_0" index="0" allow="pedestrian bicycle" speed="6.92" length="20.18" width="2.00" shape="434.81,1239.46 440.18,1236.27 441.05,1234.42 437.40,1233.92 429.24,1234.76"/>
    </edge>
    <edge id=":1599618333_5" function="internal">
        <lane id=":1599618333_5_0" index="0" disallow="tram rail_urban rail rail_electric rail_fast ship container cable_car subway aircraft wheelchair scooter drone" speed="12.03" length="11.05" shape="434.81,1239.46 437.61,1237.90 439.79,1236.75 442.06,1236.24 445.09,1236.58"/>
    </edge>
    <edge id=":1599618344_0" function="internal">
        <lane id=":1599618344_0_0" index="0" disallow="tram rail_urban rail rail_electric rail_fast ship container cable_car subway aircraft wheelchair scooter drone" speed="10.83" length="7.56" shape="617.86,1373.20 617.21,1371.04 616.75,1369.48 615.96,1368.19 614.30,1366.81"/>
    </edge>
    <edge id=":1599618344_1" function="internal">
        <lane id=":1599618344_1_0" index="0" allow="pedestrian bicycle" speed="6.20" length="3.68" width="2.00" shape="617.86,1373.20 617.18,1369.88 617.29,1369.61"/>
    </edge>
    <edge id=":1599618344_6" function="internal">
        <lane id=":1599618344_6_0" index="0" allow="pedestrian bicycle" speed="6.20" length="8.14" width="2.00" shape="617.29,1369.61 617.99,1367.85 620.29,1367.10 624.08,1367.64"/>
    </edge>
    <edge id=":1599618344_2" function="internal">
        <lane id=":1599618344_2_0" index="0" allow="pedestrian bicycle" speed="4.23" length="5.27" width="2.00" shape="623.58,1369.58 621.91,1369.35 620.91,1369.69 620.56,1370.62 620.88,1372.12"/>
    </edge>
    <edge id=":1599618344_3" function="internal">
        <lane id=":1599618344_3_0" index="0" allow="pedestrian bicycle" speed="15.28" length="9.80" width="2.00" shape="623.58,1369.58 620.71,1369.01 618.68,1368.75 616.78,1368.22 614.30,1366.81"/>
    </edge>
    <edge id=":1599618344_4" function="internal">
        <lane id=":1599618344_4_0" index="0" allow="pedestrian bicycle" speed="15.28" length="8.79" width="2.00" shape="616.09,1364.16 618.27,1365.58 619.86,1366.40 621.56,1366.98 624.08,1367.64"/>
    </edge>
    <edge id=":1599618344_5" function="internal">
        <lane id=":1599618344_5_0" index="0" disallow="tram rail_urban rail rail_electric rail_fast ship container cable_car subway aircraft wheelchair scooter drone" speed="12.14" length="9.58" shape="616.09,1364.16 618.24,1365.89 619.34,1367.48 620.01,1369.40 620.88,1372.12"/>
    </edge>
    <edge id=":1844955653_0" function="internal">
        <lane id=":1844955653_0_0" index="0" disallow="tram rail_urban rail rail_electric rail_fast ship container cable_car subway aircraft wheelchair scooter drone" speed="10.80" length="28.31" shape="771.68,959.20 764.69,955.79 758.42,955.60 752.85,958.63 747.99,964.87"/>
    </edge>
    <edge id=":1844955653_1" function="internal">
        <lane id=":1844955653_1_0" index="0" allow="pedestrian motorcycle moped bicycle" speed="15.28" length="27.07" shape="771.68,959.20 766.45,957.64 758.60,956.99 750.59,956.98 744.88,957.31"/>
    </edge>
    <edge id=":1844955653_2" function="internal">
        <lane id=":1844955653_2_0" index="0" disallow="tram rail_urban rail rail_electric rail_fast ship container cable_car subway aircraft wheelchair scooter drone" speed="7.25" length="14.80" width="2.50" shape="771.68,959.20 768.64,956.37 767.73,953.50 768.96,950.59 772.33,947.64"/>
    </edge>
    <edge id=":1844955653_3" function="internal">
        <lane id=":1844955653_3_0" index="0" disallow="tram rail_urban rail rail_electric rail_fast ship container cable_car subway aircraft wheelchair scooter drone" speed="5.65" length="8.76" shape="773.72,949.72 771.76,951.44 771.07,953.16 771.65,954.86 773.49,956.56"/>
    </edge>
    <edge id=":1844955653_4" function="internal">
        <lane id=":1844955653_4_0" index="0" disallow="tram rail_urban rail rail_electric rail_fast ship container cable_car subway aircraft wheelchair scooter drone" speed="25.00" length="29.97" shape="773.72,949.72 768.29,952.65 760.23,956.71 752.48,961.07 747.99,964.87"/>
    </edge>
    <edge id=":1844955653_5" function="internal">
        <lane id=":1844955653_5_0" index="0" allow="pedestrian motorcycle moped bicycle" speed="15.28" length="2.53" shape="773.72,949.72 771.37,950.68"/>
    </edge>
    <edge id=":1844955653_12" function="internal">
        <lane id=":1844955653_12_0" index="0" allow="pedestrian motorcycle moped bicycle" speed="15.28" length="27.37" shape="771.37,950.68 768.16,952.00 759.61,954.35 750.90,956.28 744.88,957.31"/>
    </edge>
    <edge id=":1844955653_6" function="internal">
        <lane id=":1844955653_6_0" index="0" allow="pedestrian motorcycle moped bicycle" speed="15.28" length="28.63" width="2.50" shape="744.53,954.12 750.39,953.27 758.74,951.72 766.93,949.75 772.33,947.64"/>
    </edge>
    <edge id=":1844955653_7" function="internal">
        <lane id=":1844955653_7_0" index="0" allow="pedestrian motorcycle moped bicycle" speed="15.28" length="29.24" shape="744.53,954.12 750.57,953.88 759.33,954.08 767.92,954.91 773.49,956.56"/>
    </edge>
    <edge id=":1844955653_8" function="internal">
        <lane id=":1844955653_8_0" index="0" allow="pedestrian motorcycle moped bicycle" speed="7.04" length="15.90" shape="744.53,954.12 748.60,954.37 750.53,956.25 750.33,959.75 747.99,964.87"/>
    </edge>
    <edge id=":1844955653_9" function="internal">
        <lane id=":1844955653_9_0" index="0" allow="pedestrian motorcycle moped bicycle" speed="5.82" length="13.51" shape="746.24,961.68 750.38,959.25 751.54,957.71 749.70,957.06 744.88,957.31"/>
    </edge>
    <edge id=":1844955653_10" function="internal">
        <lane id=":1844955653_10_0" index="0" disallow="tram rail_urban rail rail_electric rail_fast ship container cable_car subway aircraft wheelchair scooter drone" speed="25.00" length="29.63" width="2.50" shape="746.24,961.68 751.61,958.92 759.40,954.85 767.12,950.69 772.33,947.64"/>
    </edge>
    <edge id=":1844955653_11" function="internal">
        <lane id=":1844955653_11_0" index="0" disallow="tram rail_urban rail rail_electric rail_fast ship container cable_car subway aircraft wheelchair scooter drone" speed="14.12" length="3.98" shape="746.24,961.68 749.87,960.05"/>
    </edge>
    <edge id=":1844955653_13" function="internal">
        <lane id=":1844955653_13_0" index="0" disallow="tram rail_urban rail rail_electric rail_fast ship container cable_car subway aircraft wheelchair scooter drone" speed="14.12" length="24.75" shape="749.87,960.05 755.40,957.55 762.99,955.32 769.02,954.99 773.49,956.56"/>
    </edge>
    <edge id=":767542441_0" function="internal">
        <lane id=":767542441_0_0" index="0" allow="pedestrian motorcycle moped bicycle" speed="5.56" length="13.20" shape="729.01,960.43 725.63,961.19 722.61,962.00 719.62,962.95 716.36,964.14"/>
    </edge>
    <edge id=":767542441_1" function="internal">
        <lane id=":767542441_1_0" index="0" allow="pedestrian motorcycle moped bicycle" speed="5.56" length="13.57" shape="729.01,960.43 725.38,960.66 722.43,959.70 720.16,957.55 718.57,954.21"/>
    </edge>
    <edge id=":767542441_2" function="internal">
        <lane id=":767542441_2_0" index="0" allow="pedestrian motorcycle moped bicycle" speed="5.56" length="8.78" shape="721.62,953.24 722.65,955.42 724.12,956.82 726.02,957.44 728.36,957.30"/>
    </edge>
    <edge id=":767542441_3" function="internal">
        <lane id=":767542441_3_0" index="0" allow="pedestrian motorcycle moped bicycle" speed="5.56" length="13.63" shape="721.62,953.24 722.24,956.90 721.57,959.93 719.61,962.35 716.36,964.14"/>
    </edge>
    <edge id=":767542441_4" function="internal">
        <lane id=":767542441_4_0" index="0" allow="pedestrian motorcycle moped bicycle" speed="5.56" length="8.67" shape="715.22,961.15 717.29,960.01 718.54,958.47 718.96,956.54 718.57,954.21"/>
    </edge>
    <edge id=":767542441_5" function="internal">
        <lane id=":767542441_5_0" index="0" allow="pedestrian motorcycle moped bicycle" speed="5.56" length="13.71" shape="715.22,961.15 718.56,959.94 721.71,958.94 724.90,958.08 728.36,957.30"/>
    </edge>

    <edge id="-109459194#0" from="13713789752" to="1844955653" priority="10" type="highway.tertiary" shape="1165.08,1531.54 1152.49,1499.63 1128.24,1454.39 1087.82,1413.24 1082.38,1389.50 1084.31,1355.11 1087.55,1271.65 1088.98,1231.93 1077.77,1216.54 1041.28,1196.28 1029.07,1178.77 1019.30,1149.27 975.94,1125.15 893.05,1093.58 853.69,1085.90 792.45,1092.32 771.16,1080.38 764.22,1060.25 775.02,1011.24 781.18,985.58 780.40,963.22 766.00,953.38">
        <lane id="-109459194#0_0" index="0" disallow="tram rail_urban rail rail_electric rail_fast ship container cable_car subway aircraft wheelchair scooter drone" speed="25.00" length="824.94" shape="1161.13,1525.89 1151.04,1500.30 1126.94,1455.35 1086.36,1414.04 1080.77,1389.64 1082.71,1355.03 1085.95,1271.59 1087.36,1232.43 1076.68,1217.77 1040.18,1197.50 1027.62,1179.49 1017.98,1150.37 975.26,1126.60 892.61,1095.12 853.62,1087.52 792.11,1093.96 769.85,1081.48 762.56,1060.35 773.46,1010.88 779.57,985.42 778.83,964.08 771.68,959.20"/>
        <param key="ref" value="1844"/>
    </edge>
    <edge id="-109459194#1" from="674815373" to="13713789752" priority="10" type="highway.tertiary" shape="1602.59,2191.42 1542.06,2044.45 1500.61,1979.57 1454.90,1883.86 1438.55,1829.34 1404.49,1765.50 1368.87,1679.13 1317.84,1638.84 1265.77,1604.50 1200.19,1584.46 1171.15,1546.93 1165.08,1531.54">
        <lane id="-109459194#1_0" index="0" disallow="tram rail_urban rail rail_electric rail_fast ship container cable_car subway aircraft wheelchair scooter drone" speed="25.00" length="823.24" shape="1601.11,2192.03 1540.63,2045.19 1499.21,1980.35 1453.40,1884.44 1437.06,1829.95 1403.04,1766.18 1367.55,1680.13 1316.90,1640.14 1265.08,1605.96 1199.24,1585.84 1169.75,1547.73 1164.13,1533.49"/>
        <param key="ref" value="1844"/>
    </edge>
    <edge id="-146701321" from="1599618277" to="1844955653" priority="10" type="highway.tertiary" shape="1332.91,0.00 1314.75,54.79 1308.48,95.63 1304.76,110.33 1255.21,244.27 1237.60,276.73 1225.64,292.33 1208.91,311.34 1199.79,330.62 1174.92,412.78 1166.25,429.33 1135.83,461.29 1117.62,516.11 1097.54,563.96 1093.57,590.65 1073.58,625.49 1082.86,712.40 1077.78,769.49 1071.48,838.53 1042.19,965.81 1037.74,978.43 1018.56,1005.10 1008.76,1004.90 992.63,994.09 967.75,981.94 953.77,986.22 928.54,1010.94 917.77,1014.02 902.22,1004.27 870.63,955.51 857.23,945.14 833.36,946.50 815.72,939.53 804.25,937.77 781.82,942.79 766.00,953.38">
        <lane id="-146701321_0" index="0" disallow="tram rail_urban rail rail_electric rail_fast ship container cable_car subway aircraft wheelchair scooter drone" speed="25.00" length="1377.00" width="2.50" shape="1334.10,0.39 1315.97,55.08 1309.71,95.88 1305.96,110.70 1256.35,244.79 1238.65,277.41 1226.61,293.12 1209.96,312.03 1200.96,331.07 1176.08,413.26 1167.28,430.07 1136.93,461.95 1118.79,516.55 1098.75,564.30 1094.77,591.07 1074.87,625.76 1084.12,712.39 1079.02,769.60 1072.72,838.73 1043.39,966.16 1038.86,979.01 1019.19,1006.36 1008.37,1006.14 992.00,995.18 967.64,983.28 954.43,987.33 929.19,1012.05 917.58,1015.38 901.32,1005.18 869.70,956.37 856.83,946.41 833.16,947.76 815.39,940.74 804.29,939.04 782.32,943.96 773.72,949.72"/>
        <param key="ref" value="1770"/>
    </edge>
    <edge id="-146701322#0" from="1599618344" to="1599618373" priority="10" type="highway.tertiary" shape="617.30,1366.91 622.12,1380.30 618.22,1393.43 547.24,1462.01 521.14,1473.67 481.13,1472.38 458.40,1481.99 317.89,1596.08 309.20,1610.04 305.90,1636.78 301.15,1643.84 290.70,1647.08 272.12,1643.32 253.93,1640.46 225.51,1640.68 150.30,1621.85 135.13,1627.74 87.78,1658.52 73.10,1678.19 67.13,1705.22 72.43,1724.95 94.06,1750.25 117.99,1775.47 123.08,1799.48 120.46,1833.16 128.46,1852.39 150.62,1880.06">
        <lane id="-146701322#0_0" index="0" disallow="tram rail_urban rail rail_electric rail_fast ship container cable_car subway aircraft wheelchair scooter drone" speed="25.00" length="928.55" shape="620.88,1372.12 623.80,1380.25 619.63,1394.29 548.15,1463.36 521.46,1475.28 481.43,1473.99 459.23,1483.38 319.11,1597.15 310.74,1610.59 307.44,1637.36 302.16,1645.20 290.78,1648.73 271.84,1644.90 253.81,1642.06 225.32,1642.28 150.40,1623.53 135.86,1629.17 88.89,1659.71 74.59,1678.87 68.78,1705.18 73.88,1724.19 95.25,1749.18 119.46,1774.70 124.69,1799.37 122.09,1832.90 129.85,1851.57 151.87,1879.06"/>
        <param key="ref" value="1770"/>
    </edge>
    <edge id="-146701322#1" from="1599618333" to="1599618344" priority="10" type="highway.tertiary" shape="442.14,1237.54 427.19,1245.10 426.54,1257.59 426.94,1268.96 444.79,1282.42 513.06,1307.69 602.83,1357.12 617.30,1366.91">
        <lane id="-146701322#1_0" index="0" disallow="tram rail_urban rail rail_electric rail_fast ship container cable_car subway aircraft wheelchair scooter drone" speed="25.00" length="242.18" shape="436.25,1242.31 428.74,1246.11 428.14,1257.60 428.51,1268.14 445.57,1281.00 513.73,1306.23 603.67,1355.75 616.09,1364.16"/>
        <param key="ref" value="1770"/>
    </edge>
    <edge id="-146701322#2" from="1844955653" to="1599618333" priority="10" type="highway.tertiary" shape="766.00,953.38 747.24,962.97 721.37,1008.12 695.73,1044.26 630.63,1106.30 612.91,1127.23 605.84,1155.83 608.52,1166.85 616.23,1178.46 636.00,1185.81 664.16,1182.68 677.37,1187.64 685.37,1198.73 685.10,1206.87 667.62,1219.94 618.68,1218.93 506.05,1246.70 488.18,1248.40 478.86,1246.02 442.14,1237.54">
        <lane id="-146701322#2_0" index="0" disallow="tram rail_urban rail rail_electric rail_fast ship container cable_car subway aircraft wheelchair scooter drone" speed="25.00" length="604.08" shape="747.99,964.87 722.72,1008.98 696.95,1045.31 631.80,1107.40 614.37,1127.98 607.49,1155.83 610.01,1166.20 617.28,1177.14 636.20,1184.18 664.36,1181.05 678.38,1186.31 686.99,1198.24 686.67,1207.69 668.14,1221.55 618.86,1220.53 506.32,1248.28 488.05,1250.02 478.48,1247.57 444.37,1239.70"/>
        <param key="ref" value="1770"/>
    </edge>
    <edge id="-1497353117#0" from="13713789753" to="13713789752" priority="1" type="highway.path">
        <lane id="-1497353117#0_0" index="0" allow="pedestrian bicycle" speed="5.56" length="12.39" width="2.00" shape="1146.66,1524.58 1158.46,1528.36"/>
    </edge>
    <edge id="-1497353117#1" from="13713811205" to="13713789753" priority="1" type="highway.path" shape="145.00,2259.49 159.79,2254.91 161.23,2241.12 176.44,2216.15 210.88,2171.42 215.48,2149.49 229.14,2134.89 233.42,2104.20 226.27,2085.73 214.36,2062.48 235.36,2038.83 254.74,2012.57 273.78,1976.40 289.27,1970.13 307.36,1961.87 329.29,1953.85 338.89,1943.58 341.18,1925.10 345.58,1915.85 353.89,1901.43 368.34,1898.65 381.63,1906.20 390.39,1915.82 398.53,1918.60 418.35,1904.92 445.15,1893.68 462.95,1899.17 474.23,1893.05 481.27,1897.00 489.03,1911.24 497.93,1913.61 546.24,1904.28 634.16,1899.70 643.82,1890.96 682.26,1807.15 715.55,1729.24 755.78,1652.62 773.07,1632.15 788.30,1629.72 795.78,1635.57 805.74,1635.60 832.98,1614.80 841.38,1580.90 891.00,1532.21 921.26,1521.23 944.52,1518.13 970.91,1506.13 1011.56,1496.71 1032.30,1509.35 1056.89,1511.55 1094.06,1512.07 1125.21,1518.91 1144.56,1524.95">
        <lane id="-1497353117#1_0" index="0" allow="pedestrian bicycle" speed="5.56" length="1496.66" width="2.00" shape="144.70,2258.53 158.86,2254.15 160.26,2240.79 175.61,2215.58 209.95,2170.99 214.56,2149.01 228.19,2134.44 232.39,2104.32 225.36,2086.14 213.16,2062.33 234.58,2038.20 253.89,2012.04 273.07,1975.61 288.87,1969.21 306.98,1960.94 328.72,1952.99 337.94,1943.13 340.21,1924.82 344.69,1915.38 353.25,1900.53 368.51,1897.60 382.26,1905.41 390.96,1914.96 398.38,1917.49 417.87,1904.04 445.10,1892.62 462.84,1898.09 474.24,1891.91 482.01,1896.27 489.70,1910.38 497.97,1912.58 546.12,1903.28 633.75,1898.72 643.00,1890.36 681.35,1806.75 714.65,1728.81 754.95,1652.06 772.55,1631.22 788.57,1628.66 796.13,1634.57 805.40,1634.60 832.09,1614.22 840.48,1580.38 890.45,1531.34 921.02,1520.25 944.24,1517.16 970.59,1505.18 1011.73,1495.64 1032.62,1508.37 1056.94,1510.55 1094.18,1511.07 1125.47,1517.94 1133.83,1520.55"/>
    </edge>
    <edge id="-1499098735" from="1599618344" to="13713789753" priority="1" type="highway.path" shape="617.30,1366.91 649.80,1375.36 666.52,1379.11 717.46,1378.92 726.30,1383.33 739.55,1389.57 750.54,1387.61 758.22,1381.43 772.15,1373.08 806.33,1367.95 827.99,1366.41 845.67,1374.86 862.23,1385.70 892.89,1404.32 914.81,1421.28 951.38,1428.28 978.16,1426.17 1007.16,1431.06 1042.04,1434.58 1058.96,1444.23 1072.19,1450.07 1088.99,1456.19 1099.30,1468.82 1107.49,1488.62 1116.23,1501.31 1144.56,1524.95">
        <lane id="-1499098735_0" index="0" allow="pedestrian bicycle" speed="5.56" length="575.26" width="2.00" shape="624.08,1367.64 650.04,1374.39 666.63,1378.11 717.69,1377.92 726.74,1382.43 739.69,1388.53 750.11,1386.67 757.65,1380.61 771.81,1372.12 806.22,1366.96 828.18,1365.39 846.16,1373.99 862.76,1384.85 893.46,1403.49 915.23,1420.34 951.44,1427.27 978.20,1425.16 1007.29,1430.07 1042.35,1433.61 1059.41,1443.34 1072.56,1449.14 1089.59,1455.34 1100.17,1468.30 1108.37,1488.14 1116.98,1500.63 1136.33,1516.78"/>
    </edge>
    <edge id="-1499098938" from="6843551021" to="1599618333" priority="1" type="highway.path" shape="0.00,1675.28 3.28,1651.41 6.15,1643.24 16.66,1627.32 29.42,1602.85 45.23,1580.65 56.08,1557.43 62.12,1549.54 73.43,1539.70 78.73,1527.70 84.66,1516.48 92.83,1513.03 104.00,1510.48 118.33,1508.21 128.75,1501.15 132.82,1493.13 138.47,1479.95 147.14,1467.83 158.75,1449.91 169.82,1427.66 178.28,1421.07 194.60,1413.41 206.75,1405.11 216.18,1392.38 227.72,1372.09 237.03,1367.23 249.76,1364.43 264.00,1365.11 277.20,1364.06 284.97,1360.44 289.78,1351.03 297.43,1327.14 315.72,1302.28 326.81,1291.65 333.11,1291.24 341.54,1289.57 358.41,1280.51 374.28,1265.64 386.74,1246.40 392.70,1241.76 401.42,1239.89 413.16,1239.38 423.36,1234.60 430.53,1233.56 442.14,1237.54">
        <lane id="-1499098938_0" index="0" allow="pedestrian bicycle" speed="5.56" length="665.35" width="2.00" shape="-0.99,1675.14 2.30,1651.17 5.25,1642.79 15.80,1626.81 28.57,1602.33 44.36,1580.14 55.22,1556.91 61.39,1548.85 72.61,1539.09 77.83,1527.26 83.94,1515.70 92.52,1512.07 103.81,1509.50 117.95,1507.26 127.98,1500.47 131.91,1492.71 137.59,1479.46 146.31,1467.27 157.88,1449.41 169.03,1427.01 177.75,1420.21 194.10,1412.54 206.05,1404.38 215.34,1391.83 227.00,1371.34 236.69,1366.28 249.67,1363.42 263.98,1364.11 276.94,1363.08 284.24,1359.68 288.85,1350.65 296.53,1326.68 314.97,1301.62 326.38,1290.68 332.98,1290.25 341.20,1288.62 357.82,1279.69 373.51,1264.99 385.99,1245.71 392.27,1240.83 401.29,1238.89 412.92,1238.39 423.07,1233.63 429.91,1232.64"/>
    </edge>
    <edge id="-173730626#0" from="767542441" to="1249720179" priority="1" type="highway.track" shape="722.16,960.22 695.31,970.44 662.95,963.97 649.61,915.17 625.23,884.37 596.82,875.74 510.76,907.58 429.44,948.85 345.08,948.59 274.00,960.68 168.28,1016.43 151.43,1005.40 144.74,974.80 138.49,933.76 109.93,875.08 62.47,727.64 60.19,723.89 43.08,695.69">
        <lane id="-173730626#0_0" index="0" allow="pedestrian motorcycle moped bicycle" speed="5.56" length="986.54" shape="716.36,964.14 695.45,972.10 661.67,965.35 648.15,915.91 624.29,885.76 596.87,877.43 511.40,909.05 429.82,950.45 345.21,950.19 274.52,962.21 168.19,1018.29 150.01,1006.38 143.17,975.09 136.94,934.24 108.44,875.68 61.00,728.31 58.82,724.72 41.71,696.52"/>
    </edge>
    <edge id="-173730626#1" from="1844955653" to="767542441" priority="1" type="highway.track" shape="766.00,953.38 742.93,955.91 722.16,960.22">
        <lane id="-173730626#1_0" index="0" allow="pedestrian motorcycle moped bicycle" speed="5.56" length="16.18" shape="744.88,957.31 743.18,957.49 729.01,960.43"/>
    </edge>
    <edge id="-730607328" from="6843551159" to="767542441" priority="1" type="highway.track" shape="515.53,741.68 521.99,734.27 526.27,732.45 532.71,733.12 543.96,738.72 576.33,766.35 630.24,823.16 686.18,887.27 710.06,922.22 722.16,960.22">
        <lane id="-730607328_0" index="0" allow="pedestrian motorcycle moped bicycle" speed="5.56" length="318.31" shape="514.32,740.63 521.03,732.94 526.02,730.82 533.16,731.56 544.85,737.38 577.43,765.19 631.42,822.08 687.45,886.29 711.51,921.51 721.62,953.24"/>
    </edge>
    <edge id="109459194#0" from="1844955653" to="13713789752" priority="10" type="highway.tertiary" shape="766.00,953.38 780.40,963.22 781.18,985.58 775.02,1011.24 764.22,1060.25 771.16,1080.38 792.45,1092.32 853.69,1085.90 893.05,1093.58 975.94,1125.15 1019.30,1149.27 1029.07,1178.77 1041.28,1196.28 1077.77,1216.54 1088.98,1231.93 1087.55,1271.65 1084.31,1355.11 1082.38,1389.50 1087.82,1413.24 1128.24,1454.39 1152.49,1499.63 1165.08,1531.54">
        <lane id="109459194#0_0" index="0" disallow="tram rail_urban rail rail_electric rail_fast ship container cable_car subway aircraft wheelchair scooter drone" speed="25.00" length="827.02" shape="773.49,956.56 781.97,962.36 782.79,985.74 776.58,1011.60 765.88,1060.15 772.47,1079.28 792.79,1090.68 853.76,1084.28 893.49,1092.04 976.62,1123.70 1020.62,1148.17 1030.52,1178.05 1042.38,1195.06 1078.86,1215.31 1090.60,1231.43 1089.15,1271.71 1085.91,1355.19 1083.99,1389.36 1089.28,1412.44 1129.54,1453.43 1153.94,1498.96 1164.11,1524.71"/>
        <param key="ref" value="1844"/>
    </edge>
    <edge id="109459194#1" from="13713789752" to="674815373" priority="10" type="highway.tertiary" shape="1165.08,1531.54 1171.15,1546.93 1200.19,1584.46 1265.77,1604.50 1317.84,1638.84 1368.87,1679.13 1404.49,1765.50 1438.55,1829.34 1454.90,1883.86 1500.61,1979.57 1542.06,2044.45 1602.59,2191.42">
        <lane id="109459194#1_0" index="0" disallow="tram rail_urban rail rail_electric rail_fast ship container cable_car subway aircraft wheelchair scooter drone" speed="25.00" length="823.17" shape="1167.11,1532.31 1172.55,1546.13 1201.14,1583.08 1266.46,1603.04 1318.78,1637.54 1370.19,1678.13 1405.94,1764.82 1440.04,1828.73 1456.40,1883.28 1502.01,1978.79 1543.49,2043.71 1604.07,2190.81"/>
        <param key="ref" value="1844"/>
    </edge>
    <edge id="146701321" from="1844955653" to="1599618277" priority="10" type="highway.tertiary" shape="766.00,953.38 781.82,942.79 804.25,937.77 815.72,939.53 833.36,946.50 857.23,945.14 870.63,955.51 902.22,1004.27 917.77,1014.02 928.54,1010.94 953.77,986.22 967.75,981.94 992.63,994.09 1008.76,1004.90 1018.56,1005.10 1037.74,978.43 1042.19,965.81 1071.48,838.53 1077.78,769.49 1082.86,712.40 1073.58,625.49 1093.57,590.65 1097.54,563.96 1117.62,516.11 1135.83,461.29 1166.25,429.33 1174.92,412.78 1199.79,330.62 1208.91,311.34 1225.64,292.33 1237.60,276.73 1255.21,244.27 1304.76,110.33 1308.48,95.63 1314.75,54.79 1332.91,0.00">
        <lane id="146701321_0" index="0" disallow="tram rail_urban rail rail_electric rail_fast ship container cable_car subway aircraft wheelchair scooter drone" speed="25.00" length="1375.19" width="2.50" shape="772.33,947.64 781.32,941.62 804.21,936.50 816.05,938.32 833.56,945.24 857.63,943.87 871.56,954.65 903.12,1003.36 917.96,1012.66 927.89,1009.83 953.11,985.11 967.86,980.60 993.26,993.00 1009.15,1003.66 1017.93,1003.84 1036.62,977.85 1040.99,965.46 1070.24,838.33 1076.54,769.38 1081.60,712.41 1072.29,625.22 1092.37,590.23 1096.33,563.62 1116.45,515.67 1134.73,460.63 1165.22,428.59 1173.76,412.30 1198.62,330.17 1207.86,310.65 1224.67,291.54 1236.55,276.05 1254.07,243.75 1303.56,109.96 1307.25,95.38 1313.53,54.50 1331.72,-0.39"/>
        <param key="ref" value="1770"/>
    </edge>